IEEE/34Bus/ieee34-1_VLN_Node.Txt

LINE-GROUND and LINE-LINE VOLTAGES BY BUS & NODE

Bus       Node    VLN (kV)   Angle      pu     Base kV    Node-Node   VLL (kV)  Angle      pu

SOURCEBUS 1       41.829 /_   30.0      1.05    69.000        1-2      72.45 /_   60.0      1.05
   -      2       41.829 /_  -90.0      1.05    69.000        2-3      72.45 /_  -60.0      1.05
   -      3       41.829 /_  150.0      1.05    69.000        3-1      72.45 /_  180.0      1.05
800 ..... 1       15.095 /_    0.0      1.05    24.900        1-2     26.145 /_   30.0      1.05
   -      2       15.095 /_ -120.0      1.05    24.900        2-3     26.145 /_  -90.0      1.05
   -      3       15.095 /_  120.0      1.05    24.900        3-1     26.145 /_  150.0      1.05
802 ..... 1        15.06 /_    0.0    1.0476    24.900        1-2     26.097 /_   30.0    1.0481
   -      2       15.072 /_ -120.1    1.0484    24.900        2-3     26.105 /_  -90.0    1.0484
   -      3       15.073 /_  120.0    1.0485    24.900        3-1     26.095 /_  149.9     1.048
806 ..... 1       15.036 /_   -0.1    1.0459    24.900        1-2     26.065 /_   29.9    1.0468
   -      2       15.058 /_ -120.1    1.0474    24.900        2-3     26.078 /_  -90.1    1.0473
   -      3       15.058 /_  119.9    1.0474    24.900        3-1     26.062 /_  149.9    1.0467
808 ..... 1       14.595 /_   -0.6    1.0152    24.900        1-2     25.482 /_   29.6    1.0234
   -      2       14.799 /_ -120.8    1.0294    24.900        2-3     25.604 /_  -90.7    1.0283
   -      3       14.795 /_  119.4    1.0291    24.900        3-1     25.451 /_  149.2    1.0221
810 ..... 2       14.797 /_ -120.8    1.0293    24.900
812 ..... 1       14.081 /_   -1.2   0.97948    24.900        1-2      24.81 /_   29.1   0.99637
   -      2       14.513 /_ -121.6    1.0096    24.900        2-3     25.063 /_  -91.4    1.0065
   -      3       14.483 /_  118.8    1.0075    24.900        3-1     24.742 /_  148.4   0.99364
814 ..... 1       13.673 /_   -1.7   0.95109    24.900        1-2     24.275 /_   28.8   0.97489
   -      2       14.287 /_ -122.2   0.99384    24.900        2-3     24.634 /_  -92.0   0.98931
   -      3       14.236 /_  118.4   0.99025    24.900        3-1      24.18 /_  147.7   0.97106
814R .... 1       14.695 /_   -1.7    1.0222    24.900        1-2     25.545 /_   28.1    1.0259
   -      2       14.732 /_ -122.2    1.0247    24.900        2-3       25.4 /_  -92.0    1.0201
   -      3       14.679 /_  118.3    1.0211    24.900        3-1     25.448 /_  148.3     1.022
850 ..... 1       14.695 /_   -1.7    1.0222    24.900        1-2     25.545 /_   28.1    1.0259
   -      2       14.732 /_ -122.2    1.0247    24.900        2-3       25.4 /_  -92.0    1.0201
   -      3       14.679 /_  118.3    1.0211    24.900        3-1     25.447 /_  148.3     1.022
816 ..... 1       14.689 /_   -1.7    1.0218    24.900        1-2     25.537 /_   28.1    1.0256
   -      2       14.728 /_ -122.2    1.0245    24.900        2-3     25.393 /_  -92.0    1.0198
   -      3       14.675 /_  118.3    1.0208    24.900        3-1     25.439 /_  148.3    1.0217
818 ..... 1       14.676 /_   -1.7    1.0209    24.900
824 ..... 1       14.562 /_   -1.8    1.0129    24.900        1-2     25.323 /_   27.9     1.017
   -      2       14.594 /_ -122.4    1.0152    24.900        2-3     25.177 /_  -92.2    1.0111
   -      3       14.554 /_  118.1    1.0124    24.900        3-1     25.209 /_  148.2    1.0124
820 ..... 1       14.349 /_   -1.7   0.99812    24.900
822 ..... 1       14.307 /_   -1.7   0.99521    24.900
826 ..... 2       14.592 /_ -122.4     1.015    24.900
828 ..... 1       14.552 /_   -1.8    1.0122    24.900        1-2     25.306 /_   27.9    1.0163
   -      2       14.584 /_ -122.4    1.0145    24.900        2-3      25.16 /_  -92.2    1.0104
   -      3       14.544 /_  118.1    1.0117    24.900        3-1      25.19 /_  148.1    1.0116
830 ..... 1         14.3 /_   -2.0   0.99471    24.900        1-2     24.898 /_   27.7   0.99991
   -      2       14.343 /_ -122.8   0.99773    24.900        2-3     24.748 /_  -92.6    0.9939
   -      3       14.299 /_  117.7   0.99464    24.900        3-1     24.732 /_  147.8   0.99325
854 ..... 1       14.294 /_   -2.0   0.99429    24.900        1-2     24.888 /_   27.7   0.99951
   -      2       14.337 /_ -122.8   0.99731    24.900        2-3     24.738 /_  -92.6   0.99349
   -      3       14.293 /_  117.7   0.99423    24.900        3-1     24.721 /_  147.8    0.9928
832 ..... 1       14.985 /_   -2.4    1.0424    24.900        1-2     25.985 /_   27.0    1.0436
   -      2       14.869 /_ -123.4    1.0343    24.900        2-3     25.743 /_  -93.2    1.0338
   -      3       14.905 /_  116.9    1.0368    24.900        3-1     25.797 /_  147.3     1.036
858 ..... 1       14.952 /_   -2.5    1.0401    24.900        1-2      25.93 /_   26.9    1.0414
   -      2       14.835 /_ -123.5    1.0319    24.900        2-3     25.687 /_  -93.3    1.0316
   -      3       14.873 /_  116.8    1.0346    24.900        3-1     25.734 /_  147.3    1.0335
834 ..... 1       14.914 /_   -2.5    1.0374    24.900        1-2     25.867 /_   26.8    1.0388
   -      2       14.795 /_ -123.6    1.0292    24.900        2-3     25.624 /_  -93.4    1.0291
   -      3       14.836 /_  116.7     1.032    24.900        3-1     25.662 /_  147.2    1.0306
860 ..... 1       14.908 /_   -2.5     1.037    24.900        1-2     25.857 /_   26.8    1.0385
   -      2        14.79 /_ -123.6    1.0288    24.900        2-3     25.614 /_  -93.4    1.0287
   -      3       14.831 /_  116.7    1.0316    24.900        3-1     25.651 /_  147.2    1.0302
842 ..... 1       14.913 /_   -2.5    1.0373    24.900        1-2     25.865 /_   26.8    1.0388
   -      2       14.794 /_ -123.6    1.0291    24.900        2-3     25.622 /_  -93.4     1.029
   -      3       14.835 /_  116.7    1.0319    24.900        3-1      25.66 /_  147.2    1.0305
836 ..... 1       14.905 /_   -2.5    1.0368    24.900        1-2     25.851 /_   26.8    1.0382
   -      2       14.784 /_ -123.6    1.0284    24.900        2-3     25.608 /_  -93.4    1.0284
   -      3       14.829 /_  116.7    1.0315    24.900        3-1     25.647 /_  147.2      1.03
840 ..... 1       14.905 /_   -2.5    1.0368    24.900        1-2      25.85 /_   26.8    1.0382
   -      2       14.784 /_ -123.6    1.0284    24.900        2-3     25.607 /_  -93.4    1.0284
   -      3       14.828 /_  116.7    1.0315    24.900        3-1     25.646 /_  147.2      1.03
862 ..... 1       14.905 /_   -2.5    1.0368    24.900        1-2     25.851 /_   26.8    1.0382
   -      2       14.784 /_ -123.6    1.0284    24.900        2-3     25.608 /_  -93.4    1.0284
   -      3       14.829 /_  116.7    1.0315    24.900        3-1     25.647 /_  147.2      1.03
844 ..... 1       14.909 /_   -2.5    1.0371    24.900        1-2     25.858 /_   26.8    1.0385
   -      2        14.79 /_ -123.6    1.0288    24.900        2-3     25.615 /_  -93.4    1.0287
   -      3       14.831 /_  116.7    1.0317    24.900        3-1     25.654 /_  147.2    1.0303
846 ..... 1       14.912 /_   -2.6    1.0373    24.900        1-2      25.86 /_   26.7    1.0386
   -      2       14.789 /_ -123.7    1.0287    24.900        2-3     25.617 /_  -93.5    1.0288
   -      3       14.834 /_  116.6    1.0319    24.900        3-1     25.658 /_  147.1    1.0305
848 ..... 1       14.913 /_   -2.6    1.0373    24.900        1-2     25.861 /_   26.7    1.0386
   -      2       14.789 /_ -123.7    1.0287    24.900        2-3     25.618 /_  -93.5    1.0288
   -      3       14.835 /_  116.6    1.0319    24.900        3-1     25.659 /_  147.1    1.0305
852R .... 1       14.985 /_   -2.4    1.0424    24.900        1-2     25.985 /_   27.0    1.0436
   -      2       14.869 /_ -123.4    1.0343    24.900        2-3     25.743 /_  -93.2    1.0338
   -      3       14.906 /_  116.9    1.0368    24.900        3-1     25.797 /_  147.3     1.036
888 ..... 1       2.4165 /_   -3.9    1.0061     4.160        1-2      4.191 /_   25.4    1.0075
   -      2       2.3977 /_ -125.0    0.9983     4.160        2-3     4.1512 /_  -94.8   0.99789
   -      3       2.4042 /_  115.4     1.001     4.160        3-1     4.1602 /_  145.8         1
856 ..... 2       14.336 /_ -122.8   0.99721    24.900
852 ..... 1       13.861 /_   -2.4   0.96417    24.900        1-2     24.176 /_   27.2   0.97091
   -      2       13.914 /_ -123.4   0.96788    24.900        2-3     24.019 /_  -93.3   0.96463
   -      3       13.867 /_  116.9   0.96461    24.900        3-1     23.931 /_  147.3   0.96107
864 ..... 1       14.952 /_   -2.5    1.0401    24.900
838 ..... 2       14.782 /_ -123.6    1.0282    24.900
890 ..... 1       2.2272 /_   -4.1    0.9273     4.160        1-2     3.8836 /_   25.1   0.93356
   -      2       2.2249 /_ -125.6   0.92634     4.160        2-3     3.8365 /_  -95.4   0.92223
   -      3       2.2166 /_  114.9   0.92288     4.160        3-1     3.8299 /_  145.5   0.92064
